data_functionalizedCrystal
_audit_creation_method	'EQeq! by Chris Wilmer'
_symmetry_space_group_name_H-M	'P1'
_symmetry_Int_Tables_number	1
_symmetry_cell_setting	triclinic
loop_
_symmetry_equiv_pos_as_xyz
  x,y,z
_cell_length_a	26.343
_cell_length_b	26.343
_cell_length_c	26.343
_cell_angle_alpha	90
_cell_angle_beta	90
_cell_angle_gamma	90
loop_
_atom_site_label
_atom_site_type_symbol
_atom_site_fract_x
_atom_site_fract_y
_atom_site_fract_z
_atom_site_charge
Mof_Cu	Cu	0.285	0.285	-0	0.878
Mof_O 	O 	0.317	0.243	0.948	-0.374
Mof_C 	C 	0.322	0.178	0.887	-0.114
Mof_C 	C 	0.297	0.203	0.931	0.366
Mof_C 	C 	0.366	0.199	0.866	0.063
Mof_H 	H 	0.38	0.228	0.88	0.05
Mof_Cu	Cu	0.715	0.285	-0	0.878
Mof_Cu	Cu	0.715	0.715	-0	0.878
Mof_Cu	Cu	0.285	0.715	-0	0.878
Mof_Cu	Cu	1.06858e-33	0.285	0.285	0.878
Mof_Cu	Cu	0.715	0	0.285	0.878
Mof_Cu	Cu	-1.69317e-33	0.715	0.285	0.878
Mof_Cu	Cu	0.285	0	0.285	0.878
Mof_Cu	Cu	1.37278e-32	0.715	0.715	0.878
Mof_Cu	Cu	0.285	5.5235e-33	0.715	0.878
Mof_Cu	Cu	2.68082e-33	0.285	0.715	0.877
Mof_Cu	Cu	0.715	5.5235e-33	0.715	0.877
Mof_Cu	Cu	0.285	0.785	0.5	0.908
Mof_Cu	Cu	0.715	0.785	0.5	0.908
Mof_Cu	Cu	0.715	0.215	0.5	0.905
Mof_Cu	Cu	0.285	0.215	0.5	0.905
Mof_Cu	Cu	2.50373e-32	0.785	0.785	0.881
Mof_Cu	Cu	0.715	0.5	0.785	0.908
Mof_Cu	Cu	1.95138e-32	0.215	0.785	0.878
Mof_Cu	Cu	0.285	0.5	0.785	0.908
Mof_Cu	Cu	6.32963e-33	0.215	0.215	0.874
Mof_Cu	Cu	0.285	0.5	0.215	0.905
Mof_Cu	Cu	2.01384e-32	0.785	0.215	0.878
Mof_Cu	Cu	0.715	0.5	0.215	0.905
Mof_Cu	Cu	0.785	0.285	0.5	0.908
Mof_Cu	Cu	0.215	0.285	0.5	0.905
Mof_Cu	Cu	0.215	0.715	0.5	0.905
Mof_Cu	Cu	0.785	0.715	0.5	0.908
Mof_Cu	Cu	0.5	0.285	0.785	0.908
Mof_Cu	Cu	0.215	0	0.785	0.878
Mof_Cu	Cu	0.5	0.715	0.785	0.908
Mof_Cu	Cu	0.785	0	0.785	0.881
Mof_Cu	Cu	0.5	0.715	0.215	0.905
Mof_Cu	Cu	0.785	0	0.215	0.878
Mof_Cu	Cu	0.5	0.285	0.215	0.905
Mof_Cu	Cu	0.215	0	0.215	0.874
Mof_Cu	Cu	0.785	0.785	-0	0.881
Mof_Cu	Cu	0.215	0.785	-0	0.878
Mof_Cu	Cu	0.215	0.215	-0	0.874
Mof_Cu	Cu	0.785	0.215	-0	0.878
Mof_Cu	Cu	0.5	0.785	0.285	0.908
Mof_Cu	Cu	0.215	0.5	0.285	0.905
Mof_Cu	Cu	0.5	0.215	0.285	0.905
Mof_Cu	Cu	0.785	0.5	0.285	0.908
Mof_Cu	Cu	0.5	0.215	0.715	0.905
Mof_Cu	Cu	0.785	0.5	0.715	0.908
Mof_Cu	Cu	0.5	0.785	0.715	0.908
Mof_Cu	Cu	0.215	0.5	0.715	0.905
Mof_O 	O 	0.757	0.317	0.948	-0.372
Mof_O 	O 	0.683	0.757	0.948	-0.372
Mof_O 	O 	0.243	0.683	0.948	-0.375
Mof_O 	O 	0.317	0.757	0.052	-0.421
Mof_O 	O 	0.243	0.317	0.052	-0.424
Mof_O 	O 	0.683	0.243	0.052	-0.425
Mof_O 	O 	0.757	0.683	0.052	-0.421
Mof_O 	O 	0.948	0.317	0.243	-0.375
Mof_O 	O 	0.683	0.948	0.243	-0.375
Mof_O 	O 	0.052	0.683	0.243	-0.425
Mof_O 	O 	0.317	0.052	0.243	-0.424
Mof_O 	O 	0.948	0.683	0.757	-0.372
Mof_O 	O 	0.317	0.948	0.757	-0.372
Mof_O 	O 	0.052	0.317	0.757	-0.421
Mof_O 	O 	0.683	0.052	0.757	-0.421
Mof_O 	O 	0.243	0.948	0.317	-0.375
Mof_O 	O 	0.243	0.052	0.683	-0.425
Mof_O 	O 	0.948	0.243	0.683	-0.375
Mof_O 	O 	0.757	0.948	0.683	-0.372
Mof_O 	O 	0.052	0.757	0.683	-0.421
Mof_O 	O 	0.757	0.052	0.317	-0.421
Mof_O 	O 	0.948	0.757	0.317	-0.372
Mof_O 	O 	0.052	0.243	0.317	-0.424
Mof_O 	O 	0.683	0.757	0.052	-0.421
Mof_O 	O 	0.243	0.683	0.052	-0.425
Mof_O 	O 	0.317	0.243	0.052	-0.424
Mof_O 	O 	0.757	0.317	0.052	-0.421
Mof_O 	O 	0.683	0.243	0.948	-0.375
Mof_O 	O 	0.757	0.683	0.948	-0.372
Mof_O 	O 	0.317	0.757	0.948	-0.372
Mof_O 	O 	0.243	0.317	0.948	-0.375
Mof_O 	O 	0.052	0.683	0.757	-0.421
Mof_O 	O 	0.317	0.052	0.757	-0.421
Mof_O 	O 	0.948	0.317	0.757	-0.372
Mof_O 	O 	0.683	0.948	0.757	-0.372
Mof_O 	O 	0.052	0.317	0.243	-0.424
Mof_O 	O 	0.683	0.052	0.243	-0.425
Mof_O 	O 	0.948	0.683	0.243	-0.375
Mof_O 	O 	0.317	0.948	0.243	-0.375
Mof_O 	O 	0.757	0.052	0.683	-0.421
Mof_O 	O 	0.757	0.948	0.317	-0.372
Mof_O 	O 	0.052	0.757	0.317	-0.421
Mof_O 	O 	0.243	0.052	0.317	-0.424
Mof_O 	O 	0.948	0.243	0.317	-0.375
Mof_O 	O 	0.243	0.948	0.683	-0.375
Mof_O 	O 	0.052	0.243	0.683	-0.425
Mof_O 	O 	0.948	0.757	0.683	-0.372
Mof_O 	O 	0.317	0.743	0.448	-0.403
Mof_O 	O 	0.757	0.817	0.448	-0.398
Mof_O 	O 	0.683	0.257	0.448	-0.408
Mof_O 	O 	0.243	0.183	0.448	-0.412
Mof_O 	O 	0.317	0.257	0.552	-0.408
Mof_O 	O 	0.243	0.817	0.552	-0.402
Mof_O 	O 	0.683	0.743	0.552	-0.404
Mof_O 	O 	0.757	0.183	0.552	-0.409
Mof_O 	O 	0.948	0.817	0.743	-0.366
Mof_O 	O 	0.683	0.448	0.743	-0.403
Mof_O 	O 	0.052	0.183	0.743	-0.426
Mof_O 	O 	0.317	0.552	0.743	-0.404
Mof_O 	O 	0.948	0.183	0.257	-0.38
Mof_O 	O 	0.317	0.448	0.257	-0.407
Mof_O 	O 	0.052	0.817	0.257	-0.419
Mof_O 	O 	0.683	0.552	0.257	-0.408
Mof_O 	O 	0.243	0.448	0.817	-0.401
Mof_O 	O 	0.243	0.552	0.183	-0.413
Mof_O 	O 	0.948	0.743	0.183	-0.376
Mof_O 	O 	0.757	0.448	0.183	-0.409
Mof_O 	O 	0.052	0.257	0.183	-0.43
Mof_O 	O 	0.757	0.552	0.817	-0.398
Mof_O 	O 	0.948	0.257	0.817	-0.37
Mof_O 	O 	0.052	0.743	0.817	-0.415
Mof_O 	O 	0.683	0.257	0.552	-0.408
Mof_O 	O 	0.243	0.183	0.552	-0.413
Mof_O 	O 	0.317	0.743	0.552	-0.404
Mof_O 	O 	0.757	0.817	0.552	-0.398
Mof_O 	O 	0.683	0.743	0.448	-0.403
Mof_O 	O 	0.757	0.183	0.448	-0.409
Mof_O 	O 	0.317	0.257	0.448	-0.407
Mof_O 	O 	0.243	0.817	0.448	-0.401
Mof_O 	O 	0.052	0.183	0.257	-0.43
Mof_O 	O 	0.317	0.552	0.257	-0.408
Mof_O 	O 	0.948	0.817	0.257	-0.37
Mof_O 	O 	0.683	0.448	0.257	-0.408
Mof_O 	O 	0.052	0.817	0.743	-0.415
Mof_O 	O 	0.683	0.552	0.743	-0.404
Mof_O 	O 	0.948	0.183	0.743	-0.376
Mof_O 	O 	0.317	0.448	0.743	-0.403
Mof_O 	O 	0.757	0.552	0.183	-0.409
Mof_O 	O 	0.757	0.448	0.817	-0.398
Mof_O 	O 	0.052	0.257	0.817	-0.419
Mof_O 	O 	0.243	0.552	0.817	-0.402
Mof_O 	O 	0.948	0.743	0.817	-0.366
Mof_O 	O 	0.243	0.448	0.183	-0.412
Mof_O 	O 	0.052	0.743	0.183	-0.426
Mof_O 	O 	0.948	0.257	0.183	-0.38
Mof_O 	O 	0.817	0.243	0.448	-0.401
Mof_O 	O 	0.257	0.317	0.448	-0.407
Mof_O 	O 	0.183	0.757	0.448	-0.409
Mof_O 	O 	0.743	0.683	0.448	-0.403
Mof_O 	O 	0.817	0.757	0.552	-0.398
Mof_O 	O 	0.743	0.317	0.552	-0.404
Mof_O 	O 	0.183	0.243	0.552	-0.413
Mof_O 	O 	0.257	0.683	0.552	-0.408
Mof_O 	O 	0.448	0.317	0.743	-0.403
Mof_O 	O 	0.183	0.948	0.743	-0.376
Mof_O 	O 	0.552	0.683	0.743	-0.404
Mof_O 	O 	0.817	0.052	0.743	-0.415
Mof_O 	O 	0.448	0.683	0.257	-0.408
Mof_O 	O 	0.817	0.948	0.257	-0.37
Mof_O 	O 	0.552	0.317	0.257	-0.408
Mof_O 	O 	0.183	0.052	0.257	-0.43
Mof_O 	O 	0.743	0.948	0.817	-0.366
Mof_O 	O 	0.743	0.052	0.183	-0.426
Mof_O 	O 	0.448	0.243	0.183	-0.412
Mof_O 	O 	0.257	0.948	0.183	-0.38
Mof_O 	O 	0.552	0.757	0.183	-0.409
Mof_O 	O 	0.257	0.052	0.817	-0.419
Mof_O 	O 	0.448	0.757	0.817	-0.398
Mof_O 	O 	0.552	0.243	0.817	-0.402
Mof_O 	O 	0.183	0.757	0.552	-0.409
Mof_O 	O 	0.743	0.683	0.552	-0.404
Mof_O 	O 	0.817	0.243	0.552	-0.402
Mof_O 	O 	0.257	0.317	0.552	-0.408
Mof_O 	O 	0.183	0.243	0.448	-0.412
Mof_O 	O 	0.257	0.683	0.448	-0.408
Mof_O 	O 	0.817	0.757	0.448	-0.398
Mof_O 	O 	0.743	0.317	0.448	-0.403
Mof_O 	O 	0.552	0.683	0.257	-0.408
Mof_O 	O 	0.817	0.052	0.257	-0.419
Mof_O 	O 	0.448	0.317	0.257	-0.407
Mof_O 	O 	0.183	0.948	0.257	-0.38
Mof_O 	O 	0.552	0.317	0.743	-0.404
Mof_O 	O 	0.183	0.052	0.743	-0.426
Mof_O 	O 	0.448	0.683	0.743	-0.403
Mof_O 	O 	0.817	0.948	0.743	-0.366
Mof_O 	O 	0.257	0.052	0.183	-0.43
Mof_O 	O 	0.257	0.948	0.817	-0.37
Mof_O 	O 	0.552	0.757	0.817	-0.398
Mof_O 	O 	0.743	0.052	0.817	-0.415
Mof_O 	O 	0.448	0.243	0.817	-0.401
Mof_O 	O 	0.743	0.948	0.183	-0.376
Mof_O 	O 	0.552	0.243	0.183	-0.413
Mof_O 	O 	0.448	0.757	0.183	-0.409
Mof_O 	O 	0.817	0.743	0.948	-0.366
Mof_O 	O 	0.257	0.817	0.948	-0.37
Mof_O 	O 	0.183	0.257	0.948	-0.38
Mof_O 	O 	0.743	0.183	0.948	-0.376
Mof_O 	O 	0.817	0.257	0.052	-0.419
Mof_O 	O 	0.743	0.817	0.052	-0.415
Mof_O 	O 	0.183	0.743	0.052	-0.426
Mof_O 	O 	0.257	0.183	0.052	-0.43
Mof_O 	O 	0.448	0.817	0.243	-0.401
Mof_O 	O 	0.183	0.448	0.243	-0.412
Mof_O 	O 	0.552	0.183	0.243	-0.413
Mof_O 	O 	0.817	0.552	0.243	-0.402
Mof_O 	O 	0.448	0.183	0.757	-0.409
Mof_O 	O 	0.817	0.448	0.757	-0.398
Mof_O 	O 	0.552	0.817	0.757	-0.398
Mof_O 	O 	0.183	0.552	0.757	-0.409
Mof_O 	O 	0.743	0.448	0.317	-0.403
Mof_O 	O 	0.743	0.552	0.683	-0.404
Mof_O 	O 	0.448	0.743	0.683	-0.403
Mof_O 	O 	0.257	0.448	0.683	-0.408
Mof_O 	O 	0.552	0.257	0.683	-0.408
Mof_O 	O 	0.257	0.552	0.317	-0.408
Mof_O 	O 	0.448	0.257	0.317	-0.407
Mof_O 	O 	0.552	0.743	0.317	-0.404
Mof_O 	O 	0.183	0.257	0.052	-0.43
Mof_O 	O 	0.743	0.183	0.052	-0.426
Mof_O 	O 	0.817	0.743	0.052	-0.415
Mof_O 	O 	0.257	0.817	0.052	-0.419
Mof_O 	O 	0.183	0.743	0.948	-0.376
Mof_O 	O 	0.257	0.183	0.948	-0.38
Mof_O 	O 	0.817	0.257	0.948	-0.37
Mof_O 	O 	0.743	0.817	0.948	-0.366
Mof_O 	O 	0.552	0.183	0.757	-0.409
Mof_O 	O 	0.817	0.552	0.757	-0.398
Mof_O 	O 	0.448	0.817	0.757	-0.398
Mof_O 	O 	0.183	0.448	0.757	-0.409
Mof_O 	O 	0.552	0.817	0.243	-0.402
Mof_O 	O 	0.183	0.552	0.243	-0.413
Mof_O 	O 	0.448	0.183	0.243	-0.412
Mof_O 	O 	0.817	0.448	0.243	-0.401
Mof_O 	O 	0.257	0.552	0.683	-0.408
Mof_O 	O 	0.257	0.448	0.317	-0.407
Mof_O 	O 	0.552	0.257	0.317	-0.408
Mof_O 	O 	0.743	0.552	0.317	-0.404
Mof_O 	O 	0.448	0.743	0.317	-0.403
Mof_O 	O 	0.743	0.448	0.683	-0.403
Mof_O 	O 	0.552	0.743	0.683	-0.404
Mof_O 	O 	0.448	0.257	0.683	-0.408
Mof_C 	C 	0.822	0.322	0.887	-0.097
Mof_C 	C 	0.678	0.822	0.887	-0.098
Mof_C 	C 	0.178	0.678	0.887	-0.117
Mof_C 	C 	0.322	0.822	0.113	-0.123
Mof_C 	C 	0.178	0.322	0.113	-0.142
Mof_C 	C 	0.678	0.178	0.113	-0.144
Mof_C 	C 	0.822	0.678	0.113	-0.125
Mof_C 	C 	0.887	0.322	0.178	-0.115
Mof_C 	C 	0.678	0.887	0.178	-0.117
Mof_C 	C 	0.113	0.678	0.178	-0.144
Mof_C 	C 	0.322	0.113	0.178	-0.142
Mof_C 	C 	0.887	0.678	0.822	-0.098
Mof_C 	C 	0.322	0.887	0.822	-0.097
Mof_C 	C 	0.113	0.322	0.822	-0.123
Mof_C 	C 	0.678	0.113	0.822	-0.125
Mof_C 	C 	0.178	0.887	0.322	-0.115
Mof_C 	C 	0.178	0.113	0.678	-0.144
Mof_C 	C 	0.887	0.178	0.678	-0.117
Mof_C 	C 	0.822	0.887	0.678	-0.098
Mof_C 	C 	0.113	0.822	0.678	-0.125
Mof_C 	C 	0.822	0.113	0.322	-0.123
Mof_C 	C 	0.887	0.822	0.322	-0.097
Mof_C 	C 	0.113	0.178	0.322	-0.142
Mof_C 	C 	0.678	0.822	0.113	-0.125
Mof_C 	C 	0.178	0.678	0.113	-0.144
Mof_C 	C 	0.322	0.178	0.113	-0.142
Mof_C 	C 	0.822	0.322	0.113	-0.123
Mof_C 	C 	0.678	0.178	0.887	-0.117
Mof_C 	C 	0.822	0.678	0.887	-0.098
Mof_C 	C 	0.322	0.822	0.887	-0.097
Mof_C 	C 	0.178	0.322	0.887	-0.115
Mof_C 	C 	0.113	0.678	0.822	-0.125
Mof_C 	C 	0.322	0.113	0.822	-0.123
Mof_C 	C 	0.887	0.322	0.822	-0.097
Mof_C 	C 	0.678	0.887	0.822	-0.098
Mof_C 	C 	0.113	0.322	0.178	-0.142
Mof_C 	C 	0.678	0.113	0.178	-0.144
Mof_C 	C 	0.887	0.678	0.178	-0.117
Mof_C 	C 	0.322	0.887	0.178	-0.115
Mof_C 	C 	0.822	0.113	0.678	-0.125
Mof_C 	C 	0.822	0.887	0.322	-0.097
Mof_C 	C 	0.113	0.822	0.322	-0.123
Mof_C 	C 	0.178	0.113	0.322	-0.142
Mof_C 	C 	0.887	0.178	0.322	-0.115
Mof_C 	C 	0.178	0.887	0.678	-0.117
Mof_C 	C 	0.113	0.178	0.678	-0.144
Mof_C 	C 	0.887	0.822	0.678	-0.098
Mof_C 	C 	0.322	0.678	0.387	-0.122
Mof_C 	C 	0.822	0.822	0.387	-0.103
Mof_C 	C 	0.678	0.322	0.387	-0.122
Mof_C 	C 	0.178	0.178	0.387	-0.139
Mof_C 	C 	0.322	0.322	0.613	-0.121
Mof_C 	C 	0.178	0.822	0.613	-0.122
Mof_C 	C 	0.678	0.678	0.613	-0.125
Mof_C 	C 	0.822	0.178	0.613	-0.122
Mof_C 	C 	0.678	0.387	0.678	-0.123
Mof_C 	C 	0.322	0.613	0.678	-0.123
Mof_C 	C 	0.322	0.387	0.322	-0.12
Mof_C 	C 	0.678	0.613	0.322	-0.123
Mof_C 	C 	0.178	0.387	0.822	-0.12
Mof_C 	C 	0.178	0.613	0.178	-0.141
Mof_C 	C 	0.822	0.387	0.178	-0.12
Mof_C 	C 	0.822	0.613	0.822	-0.104
Mof_C 	C 	0.678	0.322	0.613	-0.123
Mof_C 	C 	0.178	0.178	0.613	-0.141
Mof_C 	C 	0.322	0.678	0.613	-0.123
Mof_C 	C 	0.822	0.822	0.613	-0.104
Mof_C 	C 	0.678	0.678	0.387	-0.123
Mof_C 	C 	0.822	0.178	0.387	-0.12
Mof_C 	C 	0.322	0.322	0.387	-0.12
Mof_C 	C 	0.178	0.822	0.387	-0.12
Mof_C 	C 	0.322	0.613	0.322	-0.121
Mof_C 	C 	0.678	0.387	0.322	-0.122
Mof_C 	C 	0.678	0.613	0.678	-0.125
Mof_C 	C 	0.322	0.387	0.678	-0.122
Mof_C 	C 	0.822	0.613	0.178	-0.122
Mof_C 	C 	0.822	0.387	0.822	-0.103
Mof_C 	C 	0.178	0.613	0.822	-0.122
Mof_C 	C 	0.178	0.387	0.178	-0.139
Mof_C 	C 	0.387	0.322	0.678	-0.122
Mof_C 	C 	0.613	0.678	0.678	-0.125
Mof_C 	C 	0.387	0.678	0.322	-0.122
Mof_C 	C 	0.613	0.322	0.322	-0.121
Mof_C 	C 	0.387	0.178	0.178	-0.139
Mof_C 	C 	0.613	0.822	0.178	-0.122
Mof_C 	C 	0.387	0.822	0.822	-0.103
Mof_C 	C 	0.613	0.178	0.822	-0.122
Mof_C 	C 	0.613	0.678	0.322	-0.123
Mof_C 	C 	0.387	0.322	0.322	-0.12
Mof_C 	C 	0.613	0.322	0.678	-0.123
Mof_C 	C 	0.387	0.678	0.678	-0.123
Mof_C 	C 	0.613	0.822	0.822	-0.104
Mof_C 	C 	0.387	0.178	0.822	-0.12
Mof_C 	C 	0.613	0.178	0.178	-0.141
Mof_C 	C 	0.387	0.822	0.178	-0.12
Mof_C 	C 	0.797	0.297	0.931	0.361
Mof_C 	C 	0.703	0.797	0.931	0.361
Mof_C 	C 	0.203	0.703	0.931	0.365
Mof_C 	C 	0.297	0.797	0.069	0.371
Mof_C 	C 	0.203	0.297	0.069	0.375
Mof_C 	C 	0.703	0.203	0.069	0.376
Mof_C 	C 	0.797	0.703	0.069	0.371
Mof_C 	C 	0.931	0.297	0.203	0.365
Mof_C 	C 	0.703	0.931	0.203	0.365
Mof_C 	C 	0.069	0.703	0.203	0.376
Mof_C 	C 	0.297	0.069	0.203	0.375
Mof_C 	C 	0.931	0.703	0.797	0.361
Mof_C 	C 	0.297	0.931	0.797	0.361
Mof_C 	C 	0.069	0.297	0.797	0.371
Mof_C 	C 	0.703	0.069	0.797	0.371
Mof_C 	C 	0.203	0.931	0.297	0.365
Mof_C 	C 	0.203	0.069	0.703	0.376
Mof_C 	C 	0.931	0.203	0.703	0.365
Mof_C 	C 	0.797	0.931	0.703	0.361
Mof_C 	C 	0.069	0.797	0.703	0.371
Mof_C 	C 	0.797	0.069	0.297	0.371
Mof_C 	C 	0.931	0.797	0.297	0.361
Mof_C 	C 	0.069	0.203	0.297	0.375
Mof_C 	C 	0.703	0.797	0.069	0.371
Mof_C 	C 	0.203	0.703	0.069	0.376
Mof_C 	C 	0.297	0.203	0.069	0.375
Mof_C 	C 	0.797	0.297	0.069	0.371
Mof_C 	C 	0.703	0.203	0.931	0.365
Mof_C 	C 	0.797	0.703	0.931	0.361
Mof_C 	C 	0.297	0.797	0.931	0.361
Mof_C 	C 	0.203	0.297	0.931	0.365
Mof_C 	C 	0.069	0.703	0.797	0.371
Mof_C 	C 	0.297	0.069	0.797	0.371
Mof_C 	C 	0.931	0.297	0.797	0.361
Mof_C 	C 	0.703	0.931	0.797	0.361
Mof_C 	C 	0.069	0.297	0.203	0.375
Mof_C 	C 	0.703	0.069	0.203	0.376
Mof_C 	C 	0.931	0.703	0.203	0.365
Mof_C 	C 	0.297	0.931	0.203	0.365
Mof_C 	C 	0.797	0.069	0.703	0.371
Mof_C 	C 	0.797	0.931	0.297	0.361
Mof_C 	C 	0.069	0.797	0.297	0.371
Mof_C 	C 	0.203	0.069	0.297	0.375
Mof_C 	C 	0.931	0.203	0.297	0.365
Mof_C 	C 	0.203	0.931	0.703	0.365
Mof_C 	C 	0.069	0.203	0.703	0.376
Mof_C 	C 	0.931	0.797	0.703	0.361
Mof_C 	C 	0.297	0.703	0.431	0.371
Mof_C 	C 	0.797	0.797	0.431	0.366
Mof_C 	C 	0.703	0.297	0.431	0.371
Mof_C 	C 	0.203	0.203	0.431	0.375
Mof_C 	C 	0.297	0.297	0.569	0.371
Mof_C 	C 	0.203	0.797	0.569	0.371
Mof_C 	C 	0.703	0.703	0.569	0.371
Mof_C 	C 	0.797	0.203	0.569	0.371
Mof_C 	C 	0.703	0.431	0.703	0.371
Mof_C 	C 	0.297	0.569	0.703	0.371
Mof_C 	C 	0.297	0.431	0.297	0.371
Mof_C 	C 	0.703	0.569	0.297	0.371
Mof_C 	C 	0.203	0.431	0.797	0.37
Mof_C 	C 	0.203	0.569	0.203	0.376
Mof_C 	C 	0.797	0.431	0.203	0.37
Mof_C 	C 	0.797	0.569	0.797	0.367
Mof_C 	C 	0.703	0.297	0.569	0.371
Mof_C 	C 	0.203	0.203	0.569	0.376
Mof_C 	C 	0.297	0.703	0.569	0.371
Mof_C 	C 	0.797	0.797	0.569	0.367
Mof_C 	C 	0.703	0.703	0.431	0.371
Mof_C 	C 	0.797	0.203	0.431	0.37
Mof_C 	C 	0.297	0.297	0.431	0.371
Mof_C 	C 	0.203	0.797	0.431	0.37
Mof_C 	C 	0.297	0.569	0.297	0.371
Mof_C 	C 	0.703	0.431	0.297	0.371
Mof_C 	C 	0.703	0.569	0.703	0.371
Mof_C 	C 	0.297	0.431	0.703	0.371
Mof_C 	C 	0.797	0.569	0.203	0.371
Mof_C 	C 	0.797	0.431	0.797	0.366
Mof_C 	C 	0.203	0.569	0.797	0.371
Mof_C 	C 	0.203	0.431	0.203	0.375
Mof_C 	C 	0.431	0.297	0.703	0.371
Mof_C 	C 	0.569	0.703	0.703	0.371
Mof_C 	C 	0.431	0.703	0.297	0.371
Mof_C 	C 	0.569	0.297	0.297	0.371
Mof_C 	C 	0.431	0.203	0.203	0.375
Mof_C 	C 	0.569	0.797	0.203	0.371
Mof_C 	C 	0.431	0.797	0.797	0.366
Mof_C 	C 	0.569	0.203	0.797	0.371
Mof_C 	C 	0.569	0.703	0.297	0.371
Mof_C 	C 	0.431	0.297	0.297	0.371
Mof_C 	C 	0.569	0.297	0.703	0.371
Mof_C 	C 	0.431	0.703	0.703	0.371
Mof_C 	C 	0.569	0.797	0.797	0.367
Mof_C 	C 	0.431	0.203	0.797	0.37
Mof_C 	C 	0.569	0.203	0.203	0.376
Mof_C 	C 	0.431	0.797	0.203	0.37
Mof_C 	C 	0.801	0.366	0.866	0.053
Mof_C 	C 	0.635	0.801	0.866	0.055
Mof_C 	C 	0.199	0.635	0.866	0.065
Mof_C 	C 	0.366	0.801	0.135	0.066
Mof_C 	C 	0.199	0.366	0.135	0.076
Mof_C 	C 	0.635	0.199	0.135	0.08
Mof_C 	C 	0.801	0.635	0.135	0.069
Mof_C 	C 	0.866	0.366	0.199	0.062
Mof_C 	C 	0.635	0.866	0.199	0.065
Mof_C 	C 	0.135	0.635	0.199	0.08
Mof_C 	C 	0.366	0.135	0.199	0.076
Mof_C 	C 	0.866	0.635	0.801	0.055
Mof_C 	C 	0.366	0.866	0.801	0.053
Mof_C 	C 	0.135	0.366	0.801	0.066
Mof_C 	C 	0.635	0.135	0.801	0.069
Mof_C 	C 	0.199	0.866	0.366	0.062
Mof_C 	C 	0.199	0.135	0.635	0.08
Mof_C 	C 	0.866	0.199	0.635	0.065
Mof_C 	C 	0.801	0.866	0.635	0.055
Mof_C 	C 	0.135	0.801	0.635	0.069
Mof_C 	C 	0.801	0.135	0.366	0.066
Mof_C 	C 	0.866	0.801	0.366	0.053
Mof_C 	C 	0.135	0.199	0.366	0.076
Mof_C 	C 	0.635	0.801	0.135	0.069
Mof_C 	C 	0.199	0.635	0.135	0.08
Mof_C 	C 	0.366	0.199	0.135	0.076
Mof_C 	C 	0.801	0.366	0.135	0.066
Mof_C 	C 	0.635	0.199	0.866	0.065
Mof_C 	C 	0.801	0.635	0.866	0.055
Mof_C 	C 	0.366	0.801	0.866	0.053
Mof_C 	C 	0.199	0.366	0.866	0.062
Mof_C 	C 	0.135	0.635	0.801	0.069
Mof_C 	C 	0.366	0.135	0.801	0.066
Mof_C 	C 	0.866	0.366	0.801	0.053
Mof_C 	C 	0.635	0.866	0.801	0.055
Mof_C 	C 	0.135	0.366	0.199	0.076
Mof_C 	C 	0.635	0.135	0.199	0.08
Mof_C 	C 	0.866	0.635	0.199	0.065
Mof_C 	C 	0.366	0.866	0.199	0.062
Mof_C 	C 	0.801	0.135	0.635	0.069
Mof_C 	C 	0.801	0.866	0.366	0.053
Mof_C 	C 	0.135	0.801	0.366	0.066
Mof_C 	C 	0.199	0.135	0.366	0.076
Mof_C 	C 	0.866	0.199	0.366	0.062
Mof_C 	C 	0.199	0.866	0.635	0.065
Mof_C 	C 	0.135	0.199	0.635	0.08
Mof_C 	C 	0.866	0.801	0.635	0.055
Mof_C 	C 	0.366	0.699	0.366	0.065
Mof_C 	C 	0.635	0.301	0.366	0.066
Mof_C 	C 	0.366	0.301	0.635	0.066
Mof_C 	C 	0.635	0.699	0.635	0.07
Mof_C 	C 	0.866	0.866	0.699	0.052
Mof_C 	C 	0.635	0.366	0.699	0.068
Mof_C 	C 	0.135	0.135	0.699	0.08
Mof_C 	C 	0.366	0.635	0.699	0.068
Mof_C 	C 	0.866	0.135	0.301	0.064
Mof_C 	C 	0.366	0.366	0.301	0.063
Mof_C 	C 	0.135	0.866	0.301	0.064
Mof_C 	C 	0.635	0.635	0.301	0.069
Mof_C 	C 	0.866	0.699	0.135	0.066
Mof_C 	C 	0.135	0.301	0.135	0.078
Mof_C 	C 	0.866	0.301	0.866	0.052
Mof_C 	C 	0.135	0.699	0.866	0.066
Mof_C 	C 	0.635	0.301	0.635	0.069
Mof_C 	C 	0.366	0.699	0.635	0.068
Mof_C 	C 	0.635	0.699	0.366	0.068
Mof_C 	C 	0.366	0.301	0.366	0.063
Mof_C 	C 	0.135	0.135	0.301	0.078
Mof_C 	C 	0.366	0.635	0.301	0.066
Mof_C 	C 	0.866	0.866	0.301	0.052
Mof_C 	C 	0.635	0.366	0.301	0.066
Mof_C 	C 	0.135	0.866	0.699	0.066
Mof_C 	C 	0.635	0.635	0.699	0.07
Mof_C 	C 	0.866	0.135	0.699	0.066
Mof_C 	C 	0.366	0.366	0.699	0.065
Mof_C 	C 	0.135	0.301	0.866	0.064
Mof_C 	C 	0.866	0.699	0.866	0.052
Mof_C 	C 	0.135	0.699	0.135	0.08
Mof_C 	C 	0.866	0.301	0.135	0.064
Mof_C 	C 	0.301	0.366	0.366	0.063
Mof_C 	C 	0.699	0.635	0.366	0.068
Mof_C 	C 	0.699	0.366	0.635	0.068
Mof_C 	C 	0.301	0.635	0.635	0.069
Mof_C 	C 	0.699	0.866	0.866	0.052
Mof_C 	C 	0.699	0.135	0.135	0.08
Mof_C 	C 	0.301	0.866	0.135	0.064
Mof_C 	C 	0.301	0.135	0.866	0.064
Mof_C 	C 	0.699	0.635	0.635	0.07
Mof_C 	C 	0.301	0.366	0.635	0.066
Mof_C 	C 	0.301	0.635	0.366	0.066
Mof_C 	C 	0.699	0.366	0.366	0.065
Mof_C 	C 	0.301	0.135	0.135	0.078
Mof_C 	C 	0.301	0.866	0.866	0.052
Mof_C 	C 	0.699	0.135	0.866	0.066
Mof_C 	C 	0.699	0.866	0.135	0.066
Mof_H 	H 	0.772	0.38	0.88	0.054
Mof_H 	H 	0.62	0.772	0.88	0.054
Mof_H 	H 	0.228	0.62	0.88	0.048
Mof_H 	H 	0.38	0.772	0.12	0.038
Mof_H 	H 	0.228	0.38	0.12	0.032
Mof_H 	H 	0.62	0.228	0.12	0.031
Mof_H 	H 	0.772	0.62	0.12	0.037
Mof_H 	H 	0.88	0.38	0.228	0.049
Mof_H 	H 	0.62	0.88	0.228	0.048
Mof_H 	H 	0.12	0.62	0.228	0.031
Mof_H 	H 	0.38	0.12	0.228	0.032
Mof_H 	H 	0.88	0.62	0.772	0.054
Mof_H 	H 	0.38	0.88	0.772	0.054
Mof_H 	H 	0.12	0.38	0.772	0.038
Mof_H 	H 	0.62	0.12	0.772	0.037
Mof_H 	H 	0.228	0.88	0.38	0.049
Mof_H 	H 	0.228	0.12	0.62	0.031
Mof_H 	H 	0.88	0.228	0.62	0.048
Mof_H 	H 	0.772	0.88	0.62	0.054
Mof_H 	H 	0.12	0.772	0.62	0.037
Mof_H 	H 	0.772	0.12	0.38	0.038
Mof_H 	H 	0.88	0.772	0.38	0.054
Mof_H 	H 	0.12	0.228	0.38	0.032
Mof_H 	H 	0.62	0.772	0.12	0.037
Mof_H 	H 	0.228	0.62	0.12	0.031
Mof_H 	H 	0.38	0.228	0.12	0.032
Mof_H 	H 	0.772	0.38	0.12	0.038
Mof_H 	H 	0.62	0.228	0.88	0.048
Mof_H 	H 	0.772	0.62	0.88	0.054
Mof_H 	H 	0.38	0.772	0.88	0.054
Mof_H 	H 	0.228	0.38	0.88	0.049
Mof_H 	H 	0.12	0.62	0.772	0.037
Mof_H 	H 	0.38	0.12	0.772	0.038
Mof_H 	H 	0.88	0.38	0.772	0.054
Mof_H 	H 	0.62	0.88	0.772	0.054
Mof_H 	H 	0.12	0.38	0.228	0.032
Mof_H 	H 	0.62	0.12	0.228	0.031
Mof_H 	H 	0.88	0.62	0.228	0.048
Mof_H 	H 	0.38	0.88	0.228	0.049
Mof_H 	H 	0.772	0.12	0.62	0.037
Mof_H 	H 	0.772	0.88	0.38	0.054
Mof_H 	H 	0.12	0.772	0.38	0.038
Mof_H 	H 	0.228	0.12	0.38	0.032
Mof_H 	H 	0.88	0.228	0.38	0.049
Mof_H 	H 	0.228	0.88	0.62	0.048
Mof_H 	H 	0.12	0.228	0.62	0.031
Mof_H 	H 	0.88	0.772	0.62	0.054
Mof_H 	H 	0.38	0.728	0.38	0.044
Mof_H 	H 	0.62	0.272	0.38	0.041
Mof_H 	H 	0.38	0.272	0.62	0.041
Mof_H 	H 	0.62	0.728	0.62	0.043
Mof_H 	H 	0.88	0.88	0.728	0.061
Mof_H 	H 	0.62	0.38	0.728	0.044
Mof_H 	H 	0.12	0.12	0.728	0.028
Mof_H 	H 	0.38	0.62	0.728	0.044
Mof_H 	H 	0.88	0.12	0.272	0.042
Mof_H 	H 	0.38	0.38	0.272	0.041
Mof_H 	H 	0.12	0.88	0.272	0.042
Mof_H 	H 	0.62	0.62	0.272	0.04
Mof_H 	H 	0.88	0.728	0.12	0.045
Mof_H 	H 	0.12	0.272	0.12	0.026
Mof_H 	H 	0.88	0.272	0.88	0.058
Mof_H 	H 	0.12	0.728	0.88	0.045
Mof_H 	H 	0.62	0.272	0.62	0.04
Mof_H 	H 	0.38	0.728	0.62	0.044
Mof_H 	H 	0.62	0.728	0.38	0.044
Mof_H 	H 	0.38	0.272	0.38	0.041
Mof_H 	H 	0.12	0.12	0.272	0.026
Mof_H 	H 	0.38	0.62	0.272	0.041
Mof_H 	H 	0.88	0.88	0.272	0.058
Mof_H 	H 	0.62	0.38	0.272	0.041
Mof_H 	H 	0.12	0.88	0.728	0.045
Mof_H 	H 	0.62	0.62	0.728	0.043
Mof_H 	H 	0.88	0.12	0.728	0.045
Mof_H 	H 	0.38	0.38	0.728	0.044
Mof_H 	H 	0.12	0.272	0.88	0.042
Mof_H 	H 	0.88	0.728	0.88	0.061
Mof_H 	H 	0.12	0.728	0.12	0.028
Mof_H 	H 	0.88	0.272	0.12	0.042
Mof_H 	H 	0.272	0.38	0.38	0.041
Mof_H 	H 	0.728	0.62	0.38	0.044
Mof_H 	H 	0.728	0.38	0.62	0.044
Mof_H 	H 	0.272	0.62	0.62	0.04
Mof_H 	H 	0.728	0.88	0.88	0.061
Mof_H 	H 	0.728	0.12	0.12	0.028
Mof_H 	H 	0.272	0.88	0.12	0.042
Mof_H 	H 	0.272	0.12	0.88	0.042
Mof_H 	H 	0.728	0.62	0.62	0.043
Mof_H 	H 	0.272	0.38	0.62	0.041
Mof_H 	H 	0.272	0.62	0.38	0.041
Mof_H 	H 	0.728	0.38	0.38	0.044
Mof_H 	H 	0.272	0.12	0.12	0.026
Mof_H 	H 	0.272	0.88	0.88	0.058
Mof_H 	H 	0.728	0.12	0.88	0.045
Mof_H 	H 	0.728	0.88	0.12	0.045
_end
